<edges>
    <edge id="road1" from="n1" to="n2" numLanes="1" speed="13.9"/>
</edges>