<nodes>
    <node id="n1" x="0" y="0" type="priority"/>
    <node id="n2" x="500" y="0" type="priority"/>
</nodes>