<routes>

    <vType id="car" accel="2.6" decel="4.5" sigma="0.5" length="5" maxSpeed="20"/>

    <route id="route0" edges="road1"/>

    <vehicle id="car1" type="car" route="route0" depart="0"/>
    <vehicle id="car2" type="car" route="route0" depart="5"/>

</routes>