<routes>

    <vType id="car" accel="2.6" decel="4.5" sigma="0.5" length="5" maxSpeed="20"/>

    <route id="route0" edges="road1"/>

    <flow id="traffic" type="car" route="route0" begin="0" end="1000" vehsPerHour="2000"/>

</routes>